CRYSTAL
PRIMVEC
     0.0000000     5.6287257     5.6287257
     5.6287257     0.0000000     5.6287257
     5.6287257     5.6287257     0.0000000
CONVVEC
     0.0000000     5.6287257     5.6287257
     5.6287257     0.0000000     5.6287257
     5.6287257     5.6287257     0.0000000
PRIMCOORD
   28 1
   Fe     5.6287257     2.0252155     6.9413445
   Fe     5.6287257     2.0252155     4.3161068
   Fe     5.6287257     9.2322358     4.3161068
   Fe     5.6287257     9.2322358     6.9413445
   Fe     9.2322358     6.9413445     5.6287257
   Fe     9.2322358     4.3161068     5.6287257
   Fe     2.0252155     4.3161068     5.6287257
   Fe     2.0252155     6.9413445     5.6287257
   Fe     4.3161068     5.6287257     2.0252155
   Fe     6.9413445     5.6287257     2.0252155
   Fe     6.9413445     5.6287257     9.2322358
   Fe     4.3161068     5.6287257     9.2322358
   Fe     7.6539412     5.6287257     4.3161068
   Fe     7.6539412     5.6287257     6.9413445
   Fe     3.6035102     5.6287257     6.9413445
   Fe     3.6035102     5.6287257     4.3161068
   Fe     6.9413445     3.6035102     5.6287257
   Fe     4.3161068     3.6035102     5.6287257
   Fe     4.3161068     7.6539412     5.6287257
   Fe     6.9413445     7.6539412     5.6287257
   Fe     5.6287257     4.3161068     3.6035102
   Fe     5.6287257     6.9413445     3.6035102
   Fe     5.6287257     6.9413445     7.6539412
   Fe     5.6287257     4.3161068     7.6539412
   Fe     0.0000000     0.0000000     0.0000000
   Fe     5.6287257     5.6287257     5.6287257
   La     2.8143628     2.8143628     2.8143628
   La     8.4430885     8.4430885     8.4430885
