CRYSTAL
PRIMVEC
     0.0000000     5.8584680     5.8584680
     5.8584680     0.0000000     5.8584680
     5.8584680     5.8584680     0.0000000
CONVVEC
     0.0000000     5.8584680     5.8584680
     5.8584680     0.0000000     5.8584680
     5.8584680     5.8584680     0.0000000
PRIMCOORD
   28 1
   Fe     5.8584680     2.1078768     7.2246627
   Fe     5.8584680     2.1078768     4.4922732
   Fe     5.8584680     9.6090591     4.4922732
   Fe     5.8584680     9.6090591     7.2246627
   Fe     9.6090591     7.2246627     5.8584680
   Fe     9.6090591     4.4922732     5.8584680
   Fe     2.1078768     4.4922732     5.8584680
   Fe     2.1078768     7.2246627     5.8584680
   Fe     4.4922732     5.8584680     2.1078768
   Fe     7.2246627     5.8584680     2.1078768
   Fe     7.2246627     5.8584680     9.6090591
   Fe     4.4922732     5.8584680     9.6090591
   Fe     7.9663447     5.8584680     4.4922732
   Fe     7.9663447     5.8584680     7.2246627
   Fe     3.7505912     5.8584680     7.2246627
   Fe     3.7505912     5.8584680     4.4922732
   Fe     7.2246627     3.7505912     5.8584680
   Fe     4.4922732     3.7505912     5.8584680
   Fe     4.4922732     7.9663447     5.8584680
   Fe     7.2246627     7.9663447     5.8584680
   Fe     5.8584680     4.4922732     3.7505912
   Fe     5.8584680     7.2246627     3.7505912
   Fe     5.8584680     7.2246627     7.9663447
   Fe     5.8584680     4.4922732     7.9663447
   Fe     0.0000000     0.0000000     0.0000000
   Fe     5.8584680     5.8584680     5.8584680
   La     2.9292340     2.9292340     2.9292340
   La     8.7877019     8.7877019     8.7877019
