CRYSTAL
PRIMVEC
     0.0000000     5.6861679     5.6861679
     5.6861679     0.0000000     5.6861679
     5.6861679     5.6861679     0.0000000
CONVVEC
     0.0000000     5.6861679     5.6861679
     5.6861679     0.0000000     5.6861679
     5.6861679     5.6861679     0.0000000
PRIMCOORD
   28 1
   Fe     5.6861679     2.0458832     7.0121822
   Fe     5.6861679     2.0458832     4.3601535
   Fe     5.6861679     9.3264525     4.3601535
   Fe     5.6861679     9.3264525     7.0121822
   Fe     9.3264525     7.0121822     5.6861679
   Fe     9.3264525     4.3601535     5.6861679
   Fe     2.0458832     4.3601535     5.6861679
   Fe     2.0458832     7.0121822     5.6861679
   Fe     4.3601535     5.6861679     2.0458832
   Fe     7.0121822     5.6861679     2.0458832
   Fe     7.0121822     5.6861679     9.3264525
   Fe     4.3601535     5.6861679     9.3264525
   Fe     7.7320511     5.6861679     4.3601535
   Fe     7.7320511     5.6861679     7.0121822
   Fe     3.6402847     5.6861679     7.0121822
   Fe     3.6402847     5.6861679     4.3601535
   Fe     7.0121822     3.6402847     5.6861679
   Fe     4.3601535     3.6402847     5.6861679
   Fe     4.3601535     7.7320511     5.6861679
   Fe     7.0121822     7.7320511     5.6861679
   Fe     5.6861679     4.3601535     3.6402847
   Fe     5.6861679     7.0121822     3.6402847
   Fe     5.6861679     7.0121822     7.7320511
   Fe     5.6861679     4.3601535     7.7320511
   Fe     0.0000000     0.0000000     0.0000000
   Fe     5.6861679     5.6861679     5.6861679
   La     2.8430839     2.8430839     2.8430839
   La     8.5292518     8.5292518     8.5292518
