CRYSTAL
PRIMVEC
     0.0000000     5.8010258     5.8010258
     5.8010258     0.0000000     5.8010258
     5.8010258     5.8010258     0.0000000
CONVVEC
     0.0000000     5.8010258     5.8010258
     5.8010258     0.0000000     5.8010258
     5.8010258     5.8010258     0.0000000
PRIMCOORD
   28 1
   Fe     5.8010258     2.0872091     7.1538250
   Fe     5.8010258     2.0872091     4.4482266
   Fe     5.8010258     9.5148425     4.4482266
   Fe     5.8010258     9.5148425     7.1538250
   Fe     9.5148425     7.1538250     5.8010258
   Fe     9.5148425     4.4482266     5.8010258
   Fe     2.0872091     4.4482266     5.8010258
   Fe     2.0872091     7.1538250     5.8010258
   Fe     4.4482266     5.8010258     2.0872091
   Fe     7.1538250     5.8010258     2.0872091
   Fe     7.1538250     5.8010258     9.5148425
   Fe     4.4482266     5.8010258     9.5148425
   Fe     7.8882348     5.8010258     4.4482266
   Fe     7.8882348     5.8010258     7.1538250
   Fe     3.7138167     5.8010258     7.1538250
   Fe     3.7138167     5.8010258     4.4482266
   Fe     7.1538250     3.7138167     5.8010258
   Fe     4.4482266     3.7138167     5.8010258
   Fe     4.4482266     7.8882348     5.8010258
   Fe     7.1538250     7.8882348     5.8010258
   Fe     5.8010258     4.4482266     3.7138167
   Fe     5.8010258     7.1538250     3.7138167
   Fe     5.8010258     7.1538250     7.8882348
   Fe     5.8010258     4.4482266     7.8882348
   Fe     0.0000000     0.0000000     0.0000000
   Fe     5.8010258     5.8010258     5.8010258
   La     2.9005129     2.9005129     2.9005129
   La     8.7015387     8.7015387     8.7015387
