CRYSTAL
PRIMVEC
     0.0000000     5.7436006     5.7436006
     5.7436006     0.0000000     5.7436006
     5.7436006     5.7436006     0.0000000
CONVVEC
     0.0000000     5.7436006     5.7436006
     5.7436006     0.0000000     5.7436006
     5.7436006     5.7436006     0.0000000
PRIMCOORD
   28 1
   Fe     5.7436006     2.0665475     7.0830083
   Fe     5.7436006     2.0665475     4.4041930
   Fe     5.7436006     9.4206538     4.4041930
   Fe     5.7436006     9.4206538     7.0830083
   Fe     9.4206538     7.0830083     5.7436006
   Fe     9.4206538     4.4041930     5.7436006
   Fe     2.0665475     4.4041930     5.7436006
   Fe     2.0665475     7.0830083     5.7436006
   Fe     4.4041930     5.7436006     2.0665475
   Fe     7.0830083     5.7436006     2.0665475
   Fe     7.0830083     5.7436006     9.4206538
   Fe     4.4041930     5.7436006     9.4206538
   Fe     7.8101481     5.7436006     4.4041930
   Fe     7.8101481     5.7436006     7.0830083
   Fe     3.6770531     5.7436006     7.0830083
   Fe     3.6770531     5.7436006     4.4041930
   Fe     7.0830083     3.6770531     5.7436006
   Fe     4.4041930     3.6770531     5.7436006
   Fe     4.4041930     7.8101481     5.7436006
   Fe     7.0830083     7.8101481     5.7436006
   Fe     5.7436006     4.4041930     3.6770531
   Fe     5.7436006     7.0830083     3.6770531
   Fe     5.7436006     7.0830083     7.8101481
   Fe     5.7436006     4.4041930     7.8101481
   Fe     0.0000000     0.0000000     0.0000000
   Fe     5.7436006     5.7436006     5.7436006
   La     2.8718003     2.8718003     2.8718003
   La     8.6154010     8.6154010     8.6154010
